Circuit: * C:\Users\maxhu\Documents\uControllers\Test 1\Draft4.asc

Direct Newton iteration for .op point succeeded.

Date: Sun Apr 07 02:20:31 2019
Total elapsed time: 0.047 seconds.

tnom = 27
temp = 27
method = trap
totiter = 3
traniter = 0
tranpoints = 0
accept = 0
rejected = 0
matrix size = 7
fillins = 2
solver = Normal
Matrix Compiler1: 428 bytes object code size
Matrix Compiler2: 569 bytes object code size
