Circuit: * C:\Users\maxhu\Documents\uControllers\Test 1\Draft3.asc

WARNING: Specified period is not longer than the sum of Trise, Tfall, and Ton for v2.  Increasing period to 0.001
Limiting rise time of source v2 to 1.95156e-019
Limiting fall time of source v2 to 1.95156e-019
Direct Newton iteration for .op point succeeded.

Date: Wed Apr 03 17:53:29 2019
Total elapsed time: 0.108 seconds.

tnom = 27
temp = 27
method = modified trap
totiter = 2208
traniter = 2195
tranpoints = 1087
accept = 1074
rejected = 13
matrix size = 10
fillins = 1
solver = Normal
Matrix Compiler1: 498 bytes object code size  0.1/0.1/[0.1]
Matrix Compiler2: off  [0.1]/0.1/0.1

